/*--------------------------------*- C++ -*----------------------------------*\
| =========                 |                                                 |
| \\      /  F ield         | OpenFOAM: The Open Source CFD Toolbox           |
|  \\    /   O peration     | Version:  v2012                                 |
|   \\  /    A nd           | Website:  www.openfoam.com                      |
|    \\/     M anipulation  |                                                 |
\*---------------------------------------------------------------------------*/
FoamFile
{
    version     2.0;
    format      ascii;
    class       volScalarField;
    object      p;
}
// * * * * * * * * * * * * * * * * * * * * * * * * * * * * * * * * * * * * * //

dimensions      [1 -1 -2 0 0 0 0];

internalField   uniform  1.010814000000000e+05;

boundaryField
{

    my-velocity-inlet
    {
        type            zeroGradient; 
    }

    my-pressure-outlet
    {
        type            fixedValue;     
        value           uniform 1.010814000000000e+05;
    }
    
    my-wall
    {
        type            zeroGradient;
    }

    "(backPlanes|frontPlanes)"
    {
        type            empty;
    }
   
    symmetry
    {
        type            symmetry;
    }

    freeSurf
    {
        type          	symmetry;
    }
}

// ************************************************************************* //
